Circuit: * C:\Users\dongk\Desktop\Folder\Work\Projects\EE Project Stuff\EE-Stuff\SPICE\LT3757A.asc

Warning: Multiple definitions of model "aons66402" Type: Vdmos1
Direct Newton iteration failed to find .op point.  (Use ".option noopiter" to skip.)
Starting Gmin stepping
Gmin = 10
Gmin = 1.07374
Gmin = 0.115292
Gmin = 0.0123794
Gmin = 0.00132923
Gmin = 0.000142725
Gmin = 1.5325e-005
Gmin = 1.6455e-006
Gmin = 1.76685e-007
Gmin = 1.89714e-008
Gmin = 2.03704e-009
Gmin = 2.18725e-010
Gmin = 2.34854e-011
Gmin = 2.52173e-012
Gmin = 2.70769e-013
Gmin = 0
Gmin stepping succeeded in finding the operating point.

Ignoring empty pin current: Ix(u2:5)
Ignoring empty pin current: Ix(u2:5)
Heightened Def Con from 0.00203691 to 0.00203691
Heightened Def Con from 0.0020755 to 0.0020755
Heightened Def Con from 0.00289552 to 0.00289553
Heightened Def Con from 0.00306918 to 0.00306918
Heightened Def Con from 0.00328785 to 0.00328785
Heightened Def Con from 0.00377986 to 0.00377986
Heightened Def Con from 0.00387216 to 0.00387216

Date: Mon Aug 30 18:21:07 2021
Total elapsed time: 19.844 seconds.

tnom = 27
temp = 27
method = modified trap
totiter = 1970686
traniter = 1970263
tranpoints = 501604
accept = 366604
rejected = 135007
matrix size = 38
fillins = 17
solver = Normal
Thread vector: 3.1/2.2[2] 1.9/1.5[2] 0.3/0.6[1] 0.1/0.7[1]  2592/500
Matrix Compiler1: 2.36 KB object code size  0.5/0.3/[0.1]
Matrix Compiler2: off  [0.2]/0.3/0.3

